TUR115_glm/OH_Line_Configuration_TUR115.glm
//**Overhead  Line configuration forTUR115:


object line_configuration {
	 name overhead_line_config_ABCN_106_106;
	 z11 0.086333+0.085300j;
	 z12 0.034833-0.001000j;
	 z13 0.034833-0.001000j;
	 z21 0.034833-0.001000j;
	 z22 0.086333+0.085300j;
	 z23 0.034833-0.001000j;
	 z31 0.034833-0.001000j;
	 z32 0.034833-0.001000j;
	 z33 0.086333+0.085300j;
	 }

object line_configuration {
	 name overhead_line_config_ABCN_128_112;
	 z11 0.298667+1.120667j;
	 z12 0.167667+0.494667j;
	 z13 0.167667+0.494667j;
	 z21 0.167667+0.494667j;
	 z22 0.298667+1.120667j;
	 z23 0.167667+0.494667j;
	 z31 0.167667+0.494667j;
	 z32 0.167667+0.494667j;
	 z33 0.298667+1.120667j;
	 }

object line_configuration {
	 name overhead_line_config_ABCN_128_90;
	 z11 0.345667+1.151733j;
	 z12 0.159667+0.506133j;
	 z13 0.159667+0.506133j;
	 z21 0.159667+0.506133j;
	 z22 0.345667+1.151733j;
	 z23 0.159667+0.506133j;
	 z31 0.159667+0.506133j;
	 z32 0.159667+0.506133j;
	 z33 0.345667+1.151733j;
	 }

object line_configuration {
	 name overhead_line_config_ABCN_39_90;
	 z11 0.345667+1.151733j;
	 z12 0.159667+0.506133j;
	 z13 0.159667+0.506133j;
	 z21 0.159667+0.506133j;
	 z22 0.345667+1.151733j;
	 z23 0.159667+0.506133j;
	 z31 0.159667+0.506133j;
	 z32 0.159667+0.506133j;
	 z33 0.345667+1.151733j;
	 }

object line_configuration {
	 name overhead_line_config_ABCN_73_90;
	 z11 0.345667+1.151733j;
	 z12 0.159667+0.506133j;
	 z13 0.159667+0.506133j;
	 z21 0.159667+0.506133j;
	 z22 0.345667+1.151733j;
	 z23 0.159667+0.506133j;
	 z31 0.159667+0.506133j;
	 z32 0.159667+0.506133j;
	 z33 0.345667+1.151733j;
	 }

object line_configuration {
	 name overhead_line_config_ABCN_82_97;
	 z11 2.618000+1.481733j;
	 z12 0.201000+0.637633j;
	 z13 0.201000+0.637633j;
	 z21 0.201000+0.637633j;
	 z22 2.618000+1.481733j;
	 z23 0.201000+0.637633j;
	 z31 0.201000+0.637633j;
	 z32 0.201000+0.637633j;
	 z33 2.618000+1.481733j;
	 }

object line_configuration {
	 name overhead_line_config_ABCN_90_90;
	 z11 0.345667+1.151733j;
	 z12 0.159667+0.506133j;
	 z13 0.159667+0.506133j;
	 z21 0.159667+0.506133j;
	 z22 0.345667+1.151733j;
	 z23 0.159667+0.506133j;
	 z31 0.159667+0.506133j;
	 z32 0.159667+0.506133j;
	 z33 0.345667+1.151733j;
	 }

object line_configuration {
	 name overhead_line_config_ABCN_97_97;
	 z11 2.618000+1.481733j;
	 z12 0.201000+0.637633j;
	 z13 0.201000+0.637633j;
	 z21 0.201000+0.637633j;
	 z22 2.618000+1.481733j;
	 z23 0.201000+0.637633j;
	 z31 0.201000+0.637633j;
	 z32 0.201000+0.637633j;
	 z33 2.618000+1.481733j;
	 }

object line_configuration {
	 name overhead_line_config_ABC_106_106;
	 z11 0.086333+0.085300j;
	 z12 0.034833-0.001000j;
	 z13 0.034833-0.001000j;
	 z21 0.034833-0.001000j;
	 z22 0.086333+0.085300j;
	 z23 0.034833-0.001000j;
	 z31 0.034833-0.001000j;
	 z32 0.034833-0.001000j;
	 z33 0.086333+0.085300j;
	 }

object line_configuration {
	 name overhead_line_config_ABN_82_97;
	 z11 2.618000+1.481733j;
	 z12 0.201000+0.637633j;
	 z13 0.201000+0.637633j;
	 z21 0.201000+0.637633j;
	 z22 2.618000+1.481733j;
	 z23 0.201000+0.637633j;
	 z31 0.201000+0.637633j;
	 z32 0.201000+0.637633j;
	 z33 2.618000+1.481733j;
	 }

object line_configuration {
	 name overhead_line_config_AN_79_79;
	 z11 2.660000+1.500000j;
	 z12 0.201000+0.637500j;
	 z13 0.201000+0.637500j;
	 z21 0.201000+0.637500j;
	 z22 2.660000+1.500000j;
	 z23 0.201000+0.637500j;
	 z31 0.201000+0.637500j;
	 z32 0.201000+0.637500j;
	 z33 2.660000+1.500000j;
	 }

object line_configuration {
	 name overhead_line_config_AN_97_97;
	 z11 2.618000+1.481733j;
	 z12 0.201000+0.637633j;
	 z13 0.201000+0.637633j;
	 z21 0.201000+0.637633j;
	 z22 2.618000+1.481733j;
	 z23 0.201000+0.637633j;
	 z31 0.201000+0.637633j;
	 z32 0.201000+0.637633j;
	 z33 2.618000+1.481733j;
	 }

object line_configuration {
	 name overhead_line_config_BN_79_79;
	 z11 2.660000+1.500000j;
	 z12 0.201000+0.637500j;
	 z13 0.201000+0.637500j;
	 z21 0.201000+0.637500j;
	 z22 2.660000+1.500000j;
	 z23 0.201000+0.637500j;
	 z31 0.201000+0.637500j;
	 z32 0.201000+0.637500j;
	 z33 2.660000+1.500000j;
	 }

